
     RDKit          3D

  0  0  0  0  0  0  0  0  0  0999 V3000
M  V30 BEGIN CTAB
M  V30 COUNTS 22 23 0 0 0
M  V30 BEGIN ATOM
M  V30 1 C -2.4166 -0.9357 -0.0521 0
M  V30 2 C -2.4130 0.3894 0.3333 0
M  V30 3 N -3.5896 1.1079 0.6504 0
M  V30 4 C -1.1774 1.0108 0.4007 0
M  V30 5 C 0.0016 0.3523 0.1008 0
M  V30 6 C 1.2340 0.9825 0.1710 0
M  V30 7 C 2.4046 0.3140 -0.1310 0
M  V30 8 N 3.6504 0.9997 -0.0459 0
M  V30 9 C 2.3877 -1.0120 -0.5154 0
M  V30 10 C 1.1589 -1.6365 -0.5843 0
M  V30 11 C -0.0233 -0.9728 -0.2826 0
M  V30 12 C -1.2482 -1.6049 -0.3541 0
M  V30 13 H -3.3792 -1.4251 -0.1061 0
M  V30 14 H -4.3850 0.5836 1.0762 0
M  V30 15 H -3.7108 2.1257 0.4855 0
M  V30 16 H -1.1355 2.0455 0.6980 0
M  V30 17 H 1.2210 2.0179 0.4736 0
M  V30 18 H 3.7027 2.0228 0.1190 0
M  V30 19 H 4.5475 0.4781 -0.1491 0
M  V30 20 H 3.3199 -1.5106 -0.7461 0
M  V30 21 H 1.1366 -2.6913 -0.8893 0
M  V30 22 H -1.2861 -2.6413 -0.6523 0
M  V30 END ATOM
M  V30 BEGIN BOND
M  V30 0 2 1 2
M  V30 1 1 2 3
M  V30 2 1 2 4
M  V30 3 2 4 5
M  V30 4 1 5 6
M  V30 5 2 6 7
M  V30 6 1 7 8
M  V30 7 1 7 9
M  V30 8 2 9 10
M  V30 9 1 10 11
M  V30 10 2 11 12
M  V30 11 1 12 1
M  V30 12 1 11 5
M  V30 13 1 1 13
M  V30 14 1 3 14
M  V30 15 1 3 15
M  V30 16 1 4 16
M  V30 17 1 6 17
M  V30 18 1 8 18
M  V30 19 1 8 19
M  V30 20 1 9 20
M  V30 21 1 10 21
M  V30 22 1 12 22
M  V30 END BOND
M  V30 END CTAB
M  END

$$$$
