
     RDKit          3D

  0  0  0  0  0  0  0  0  0  0999 V3000
M  V30 BEGIN CTAB
M  V30 COUNTS 34 37 0 0 0
M  V30 BEGIN ATOM
M  V30 1 C 1.3355 -0.4828 3.4199 0
M  V30 2 C 2.0351 0.6181 3.0501 0
M  V30 3 C 1.7929 1.2192 1.8117 0
M  V30 4 C 0.8294 0.6483 1.0058 0
M  V30 5 C 0.1199 -0.4754 1.3908 0
M  V30 6 C 0.3722 -1.0474 2.6057 0
M  V30 7 C -0.8788 -0.9548 0.3926 0
M  V30 8 C -0.1116 -1.1145 -0.8609 0
M  V30 9 C -0.0716 -2.2582 -1.6099 0
M  V30 10 C 0.6987 -2.2875 -2.7880 0
M  V30 11 C 1.3963 -1.1611 -3.1604 0
M  V30 12 C 1.3628 0.0094 -2.4049 0
M  V30 13 C 0.6013 -0.0031 -1.2653 0
M  V30 14 C 0.4558 1.1737 -0.3388 0
M  V30 15 C -1.0369 1.4617 -0.2235 0
M  V30 16 N -1.5093 2.1522 -1.4046 0
M  V30 17 C -1.8264 0.2118 0.0586 0
M  V30 18 N -2.7896 0.3924 1.1308 0
M  V30 19 H 1.5206 -0.9377 4.3604 0
M  V30 20 H 2.7856 1.0580 3.6845 0
M  V30 21 H 2.3241 2.0987 1.4700 0
M  V30 22 H -0.1964 -1.9262 2.8841 0
M  V30 23 H -1.4160 -1.8369 0.7066 0
M  V30 24 H -0.6161 -3.1297 -1.3146 0
M  V30 25 H 0.7669 -3.1606 -3.4167 0
M  V30 26 H 1.9890 -1.1732 -4.0606 0
M  V30 27 H 1.8965 0.9051 -2.6694 0
M  V30 28 H 1.0264 2.0324 -0.6569 0
M  V30 29 H -1.2300 2.1530 0.6487 0
M  V30 30 H -1.4506 3.1991 -1.2473 0
M  V30 31 H -1.0417 1.8439 -2.2694 0
M  V30 32 H -2.3663 -0.0446 -0.8954 0
M  V30 33 H -3.3272 1.2565 0.8960 0
M  V30 34 H -3.4406 -0.4400 1.0703 0
M  V30 END ATOM
M  V30 BEGIN BOND
M  V30 0 2 1 2
M  V30 1 1 2 3
M  V30 2 2 3 4
M  V30 3 1 4 5
M  V30 4 2 5 6
M  V30 5 1 5 7
M  V30 6 1 7 8
M  V30 7 2 8 9
M  V30 8 1 9 10
M  V30 9 2 10 11
M  V30 10 1 11 12
M  V30 11 2 12 13
M  V30 12 1 13 14
M  V30 13 1 14 15
M  V30 14 1 15 16
M  V30 15 1 15 17
M  V30 16 1 17 18
M  V30 17 1 6 1
M  V30 18 1 17 7
M  V30 19 1 14 4
M  V30 20 1 13 8
M  V30 21 1 1 19
M  V30 22 1 2 20
M  V30 23 1 3 21
M  V30 24 1 6 22
M  V30 25 1 7 23
M  V30 26 1 9 24
M  V30 27 1 10 25
M  V30 28 1 11 26
M  V30 29 1 12 27
M  V30 30 1 14 28
M  V30 31 1 15 29
M  V30 32 1 16 30
M  V30 33 1 16 31
M  V30 34 1 17 32
M  V30 35 1 18 33
M  V30 36 1 18 34
M  V30 END BOND
M  V30 END CTAB
M  END

$$$$
