
     RDKit          3D

  0  0  0  0  0  0  0  0  0  0999 V3000
M  V30 BEGIN CTAB
M  V30 COUNTS 14 14 0 0 0
M  V30 BEGIN ATOM
M  V30 1 C 0.8432 1.1687 -0.2828 0
M  V30 2 C -0.5219 1.3201 -0.2943 0
M  V30 3 C -1.0926 0.0694 -0.2864 0
M  V30 4 N -2.4813 -0.2149 -0.2938 0
M  V30 5 N -0.1035 -0.8162 -0.2707 0
M  V30 6 C 1.0952 -0.1847 -0.2680 0
M  V30 7 N 2.3664 -0.8348 -0.2525 0
M  V30 8 H 1.5878 1.9336 -0.2848 0
M  V30 9 H -1.0841 2.2451 -0.3072 0
M  V30 10 H -3.1982 0.5246 -0.0641 0
M  V30 11 H -2.8645 -1.1566 -0.5233 0
M  V30 12 H -0.2067 -1.8554 -0.2615 0
M  V30 13 H 2.4218 -1.8397 0.0234 0
M  V30 14 H 3.2385 -0.3590 -0.5017 0
M  V30 END ATOM
M  V30 BEGIN BOND
M  V30 0 1 1 2
M  V30 1 2 2 3
M  V30 2 1 3 4
M  V30 3 1 3 5
M  V30 4 1 5 6
M  V30 5 1 6 7
M  V30 6 2 6 1
M  V30 7 1 1 8
M  V30 8 1 2 9
M  V30 9 1 4 10
M  V30 10 1 4 11
M  V30 11 1 5 12
M  V30 12 1 7 13
M  V30 13 1 7 14
M  V30 END BOND
M  V30 END CTAB
M  END

$$$$
