
     RDKit          3D

  0  0  0  0  0  0  0  0  0  0999 V3000
M  V30 BEGIN CTAB
M  V30 COUNTS 78 84 0 0 0
M  V30 BEGIN ATOM
M  V30 1 C 8.8470 -2.2260 -1.8179 0
M  V30 2 C 7.5596 -1.7410 -1.5703 0
M  V30 3 C 6.5049 -2.6012 -1.3751 0
M  V30 4 C 5.1587 -2.1238 -1.1157 0
M  V30 5 C 4.0155 -2.7951 -1.5105 0
M  V30 6 C 2.7516 -2.3249 -1.2525 0
M  V30 7 C 2.5901 -1.1404 -0.5749 0
M  V30 8 C 1.2658 -0.6083 -0.2910 0
M  V30 9 C 0.1572 -1.4175 -0.0712 0
M  V30 10 C -1.0857 -0.9098 0.1983 0
M  V30 11 C -2.2447 -1.7697 0.4257 0
M  V30 12 C -3.2778 -1.3821 1.2670 0
M  V30 13 C -4.3615 -2.2074 1.4613 0
M  V30 14 C -4.4567 -3.4438 0.8284 0
M  V30 15 C -5.6050 -4.3184 1.0245 0
M  V30 16 C -6.3091 -4.3522 2.2189 0
M  V30 17 C -7.3929 -5.1882 2.3897 0
M  V30 18 C -7.8130 -6.0193 1.3774 0
M  V30 19 N -8.9304 -6.9035 1.5063 0
M  V30 20 C -7.1250 -5.9983 0.1845 0
M  V30 21 C -6.0553 -5.1681 0.0265 0
M  V30 22 C -3.4395 -3.8349 -0.0046 0
M  V30 23 C -2.3686 -3.0031 -0.1878 0
M  V30 24 C -1.1958 0.4641 0.2449 0
M  V30 25 C -0.1262 1.3213 0.0344 0
M  V30 26 C -0.3086 2.7759 0.1089 0
M  V30 27 C -1.5107 3.3520 -0.2574 0
M  V30 28 C -1.6896 4.7353 -0.1781 0
M  V30 29 C -0.6954 5.5605 0.2587 0
M  V30 30 C -0.8813 6.9994 0.3540 0
M  V30 31 C -2.1402 7.4889 0.6571 0
M  V30 32 C -2.3122 8.8655 0.7497 0
M  V30 33 C -1.2727 9.7224 0.5485 0
M  V30 34 N -1.4971 11.1185 0.6544 0
M  V30 35 C 0.0083 9.2644 0.2419 0
M  V30 36 C 0.1656 7.8894 0.1526 0
M  V30 37 C 0.5033 4.9887 0.6238 0
M  V30 38 C 0.6904 3.6185 0.5489 0
M  V30 39 C 1.1020 0.7614 -0.2337 0
M  V30 40 C 3.7056 -0.4315 -0.1587 0
M  V30 41 C 4.9684 -0.9397 -0.4388 0
M  V30 42 C 6.7465 -3.9555 -1.4292 0
M  V30 43 C 8.0204 -4.4633 -1.6743 0
M  V30 44 C 9.0684 -3.5826 -1.8682 0
M  V30 45 N 10.3538 -4.1365 -2.1166 0
M  V30 46 H 9.6784 -1.5589 -1.9716 0
M  V30 47 H 7.3853 -0.6747 -1.5312 0
M  V30 48 H 4.1362 -3.7275 -2.0430 0
M  V30 49 H 1.8624 -2.8510 -1.5618 0
M  V30 50 H 0.2926 -2.4737 -0.1180 0
M  V30 51 H -3.2150 -0.4273 1.7612 0
M  V30 52 H -5.1718 -1.9324 2.1048 0
M  V30 53 H -5.9613 -3.6864 3.0105 0
M  V30 54 H -7.9355 -5.2058 3.3232 0
M  V30 55 H -8.9443 -7.7810 0.9623 0
M  V30 56 H -9.7387 -6.6926 2.1343 0
M  V30 57 H -7.4648 -6.6596 -0.6116 0
M  V30 58 H -5.5198 -5.1564 -0.9123 0
M  V30 59 H -3.4803 -4.7884 -0.5115 0
M  V30 60 H -1.5669 -3.3225 -0.8499 0
M  V30 61 H -2.1646 0.8917 0.4563 0
M  V30 62 H -2.3346 2.7437 -0.6122 0
M  V30 63 H -2.6414 5.1488 -0.4738 0
M  V30 64 H -2.9600 6.8043 0.8148 0
M  V30 65 H -3.2937 9.2678 0.9863 0
M  V30 66 H -0.7196 11.7062 1.0156 0
M  V30 67 H -2.4291 11.4825 0.3656 0
M  V30 68 H 0.8425 9.9333 0.0801 0
M  V30 69 H 1.1347 7.4535 -0.0829 0
M  V30 70 H 1.3139 5.6122 0.9742 0
M  V30 71 H 1.6576 3.1805 0.8456 0
M  V30 72 H 1.9348 1.4538 -0.3977 0
M  V30 73 H 3.6384 0.5101 0.3796 0
M  V30 74 H 5.8366 -0.3780 -0.1102 0
M  V30 75 H 5.9150 -4.6396 -1.2749 0
M  V30 76 H 8.1947 -5.5256 -1.7126 0
M  V30 77 H 11.1877 -3.5932 -1.8188 0
M  V30 78 H 10.4427 -5.0541 -2.5804 0
M  V30 END ATOM
M  V30 BEGIN BOND
M  V30 0 2 1 2
M  V30 1 1 2 3
M  V30 2 1 3 4
M  V30 3 2 4 5
M  V30 4 1 5 6
M  V30 5 2 6 7
M  V30 6 1 7 8
M  V30 7 2 8 9
M  V30 8 1 9 10
M  V30 9 1 10 11
M  V30 10 2 11 12
M  V30 11 1 12 13
M  V30 12 2 13 14
M  V30 13 1 14 15
M  V30 14 2 15 16
M  V30 15 1 16 17
M  V30 16 2 17 18
M  V30 17 1 18 19
M  V30 18 1 18 20
M  V30 19 2 20 21
M  V30 20 1 14 22
M  V30 21 2 22 23
M  V30 22 2 10 24
M  V30 23 1 24 25
M  V30 24 1 25 26
M  V30 25 2 26 27
M  V30 26 1 27 28
M  V30 27 2 28 29
M  V30 28 1 29 30
M  V30 29 2 30 31
M  V30 30 1 31 32
M  V30 31 2 32 33
M  V30 32 1 33 34
M  V30 33 1 33 35
M  V30 34 2 35 36
M  V30 35 1 29 37
M  V30 36 2 37 38
M  V30 37 2 25 39
M  V30 38 1 7 40
M  V30 39 2 40 41
M  V30 40 2 3 42
M  V30 41 1 42 43
M  V30 42 2 43 44
M  V30 43 1 44 45
M  V30 44 1 44 1
M  V30 45 1 41 4
M  V30 46 1 39 8
M  V30 47 1 23 11
M  V30 48 1 38 26
M  V30 49 1 21 15
M  V30 50 1 36 30
M  V30 51 1 1 46
M  V30 52 1 2 47
M  V30 53 1 5 48
M  V30 54 1 6 49
M  V30 55 1 9 50
M  V30 56 1 12 51
M  V30 57 1 13 52
M  V30 58 1 16 53
M  V30 59 1 17 54
M  V30 60 1 19 55
M  V30 61 1 19 56
M  V30 62 1 20 57
M  V30 63 1 21 58
M  V30 64 1 22 59
M  V30 65 1 23 60
M  V30 66 1 24 61
M  V30 67 1 27 62
M  V30 68 1 28 63
M  V30 69 1 31 64
M  V30 70 1 32 65
M  V30 71 1 34 66
M  V30 72 1 34 67
M  V30 73 1 35 68
M  V30 74 1 36 69
M  V30 75 1 37 70
M  V30 76 1 38 71
M  V30 77 1 39 72
M  V30 78 1 40 73
M  V30 79 1 41 74
M  V30 80 1 42 75
M  V30 81 1 43 76
M  V30 82 1 45 77
M  V30 83 1 45 78
M  V30 END BOND
M  V30 END CTAB
M  END

$$$$
