
     RDKit          3D

  0  0  0  0  0  0  0  0  0  0999 V3000
M  V30 BEGIN CTAB
M  V30 COUNTS 92 100 0 0 0
M  V30 BEGIN ATOM
M  V30 1 C -4.1433 7.9142 -1.1473 0
M  V30 2 C -3.7457 6.6391 -0.7329 0
M  V30 3 C -2.4099 6.3420 -0.6219 0
M  V30 4 C -2.0052 5.0209 -0.1932 0
M  V30 5 C -2.7378 3.8826 -0.4827 0
M  V30 6 C -2.3084 2.6469 -0.0504 0
M  V30 7 C -1.1562 2.4954 0.6729 0
M  V30 8 C -0.6511 1.1974 1.1594 0
M  V30 9 C -0.5966 1.2527 2.6679 0
M  V30 10 C -0.0580 -0.0498 3.1881 0
M  V30 11 C -0.9232 -1.1766 2.7146 0
M  V30 12 C -0.9375 -1.2455 1.1844 0
M  V30 13 C -1.7856 -2.3894 0.7756 0
M  V30 14 C -2.9054 -2.1871 -0.0243 0
M  V30 15 C -3.6923 -3.2569 -0.4021 0
M  V30 16 C -3.4141 -4.5529 -0.0141 0
M  V30 17 C -4.2555 -5.6621 -0.4229 0
M  V30 18 C -4.4261 -6.7755 0.3673 0
M  V30 19 C -5.2270 -7.8484 -0.0040 0
M  V30 20 C -5.8875 -7.7923 -1.2346 0
M  V30 21 N -6.7085 -8.8666 -1.6420 0
M  V30 22 C -5.7138 -6.6859 -2.0129 0
M  V30 23 C -4.9096 -5.6159 -1.6330 0
M  V30 24 C -2.3034 -4.7521 0.7793 0
M  V30 25 C -1.5091 -3.6806 1.1621 0
M  V30 26 C -1.5167 0.0450 0.6980 0
M  V30 27 C 0.4727 -1.4734 0.7447 0
M  V30 28 C 1.3120 -0.2844 1.1386 0
M  V30 29 C 2.7017 -0.4011 0.6533 0
M  V30 30 C 3.1715 -1.4656 -0.0726 0
M  V30 31 C 4.4941 -1.5113 -0.5002 0
M  V30 32 C 5.3845 -0.4970 -0.2155 0
M  V30 33 C 6.7752 -0.5642 -0.6750 0
M  V30 34 C 7.4678 0.5896 -0.9789 0
M  V30 35 C 8.7687 0.4693 -1.4051 0
M  V30 36 C 9.3941 -0.7547 -1.5364 0
M  V30 37 N 10.7386 -0.8036 -1.9814 0
M  V30 38 C 8.6649 -1.8818 -1.2219 0
M  V30 39 C 7.3654 -1.7951 -0.7941 0
M  V30 40 C 4.9096 0.5729 0.5153 0
M  V30 41 C 3.5809 0.6186 0.9447 0
M  V30 42 C 1.3513 -0.2270 2.6542 0
M  V30 43 C 0.7185 0.9770 0.5591 0
M  V30 44 C -0.4256 3.6269 0.9622 0
M  V30 45 C -0.8452 4.8691 0.5349 0
M  V30 46 C -1.4643 7.2903 -0.9158 0
M  V30 47 C -1.8773 8.5541 -1.3267 0
M  V30 48 C -3.2208 8.8881 -1.4497 0
M  V30 49 N -3.6204 10.2009 -1.8758 0
M  V30 50 H -5.1920 8.1737 -1.2432 0
M  V30 51 H -4.5285 5.9144 -0.5096 0
M  V30 52 H -3.6603 3.9934 -1.0600 0
M  V30 53 H -2.8762 1.7507 -0.2731 0
M  V30 54 H -1.6034 1.4892 3.0347 0
M  V30 55 H 0.1012 2.0494 2.9794 0
M  V30 56 H -0.0128 -0.0725 4.2820 0
M  V30 57 H -0.5395 -2.1087 3.1590 0
M  V30 58 H -1.9746 -0.9466 3.0358 0
M  V30 59 H -3.1377 -1.1632 -0.3388 0
M  V30 60 H -4.5566 -3.1051 -1.0186 0
M  V30 61 H -3.9333 -6.8605 1.3281 0
M  V30 62 H -5.3517 -8.7085 0.6179 0
M  V30 63 H -7.1816 -9.4840 -0.9550 0
M  V30 64 H -6.8460 -9.0479 -2.6542 0
M  V30 65 H -6.2389 -6.6610 -2.9719 0
M  V30 66 H -4.8391 -4.7913 -2.3186 0
M  V30 67 H -2.0544 -5.7713 1.1046 0
M  V30 68 H -0.6310 -3.8348 1.7883 0
M  V30 69 H -1.5565 0.1185 -0.4103 0
M  V30 70 H -2.5219 0.1696 1.1463 0
M  V30 71 H 0.8597 -2.3718 1.2854 0
M  V30 72 H 0.5063 -1.6907 -0.3259 0
M  V30 73 H 2.4881 -2.2822 -0.3127 0
M  V30 74 H 4.8649 -2.3511 -1.0726 0
M  V30 75 H 6.9577 1.5440 -0.8689 0
M  V30 76 H 9.3189 1.3742 -1.6458 0
M  V30 77 H 11.4632 -1.2587 -1.3998 0
M  V30 78 H 11.0167 -0.3883 -2.8878 0
M  V30 79 H 9.1717 -2.8390 -1.3300 0
M  V30 80 H 6.8336 -2.6967 -0.5597 0
M  V30 81 H 5.5803 1.3924 0.7604 0
M  V30 82 H 3.3023 1.5041 1.5149 0
M  V30 83 H 1.8235 -1.1446 3.0311 0
M  V30 84 H 1.9422 0.6319 3.0313 0
M  V30 85 H 1.3735 1.8455 0.6429 0
M  V30 86 H 0.5651 0.7766 -0.5299 0
M  V30 87 H 0.5036 3.5372 1.5404 0
M  V30 88 H -0.2327 5.7248 0.7897 0
M  V30 89 H -0.3968 7.1048 -0.8428 0
M  V30 90 H -1.1337 9.2766 -1.5497 0
M  V30 91 H -4.5695 10.2859 -2.3025 0
M  V30 92 H -2.9943 11.0262 -1.7640 0
M  V30 END ATOM
M  V30 BEGIN BOND
M  V30 0 2 1 2
M  V30 1 1 2 3
M  V30 2 1 3 4
M  V30 3 2 4 5
M  V30 4 1 5 6
M  V30 5 2 6 7
M  V30 6 1 7 8
M  V30 7 1 8 9
M  V30 8 1 9 10
M  V30 9 1 10 11
M  V30 10 1 11 12
M  V30 11 1 12 13
M  V30 12 2 13 14
M  V30 13 1 14 15
M  V30 14 2 15 16
M  V30 15 1 16 17
M  V30 16 2 17 18
M  V30 17 1 18 19
M  V30 18 2 19 20
M  V30 19 1 20 21
M  V30 20 1 20 22
M  V30 21 2 22 23
M  V30 22 1 16 24
M  V30 23 2 24 25
M  V30 24 1 12 26
M  V30 25 1 12 27
M  V30 26 1 27 28
M  V30 27 1 28 29
M  V30 28 2 29 30
M  V30 29 1 30 31
M  V30 30 2 31 32
M  V30 31 1 32 33
M  V30 32 2 33 34
M  V30 33 1 34 35
M  V30 34 2 35 36
M  V30 35 1 36 37
M  V30 36 1 36 38
M  V30 37 2 38 39
M  V30 38 1 32 40
M  V30 39 2 40 41
M  V30 40 1 28 42
M  V30 41 1 28 43
M  V30 42 1 7 44
M  V30 43 2 44 45
M  V30 44 2 3 46
M  V30 45 1 46 47
M  V30 46 2 47 48
M  V30 47 1 48 49
M  V30 48 1 48 1
M  V30 49 1 45 4
M  V30 50 1 26 8
M  V30 51 1 41 29
M  V30 52 1 43 8
M  V30 53 1 42 10
M  V30 54 1 25 13
M  V30 55 1 39 33
M  V30 56 1 23 17
M  V30 57 1 1 50
M  V30 58 1 2 51
M  V30 59 1 5 52
M  V30 60 1 6 53
M  V30 61 1 9 54
M  V30 62 1 9 55
M  V30 63 1 10 56
M  V30 64 1 11 57
M  V30 65 1 11 58
M  V30 66 1 14 59
M  V30 67 1 15 60
M  V30 68 1 18 61
M  V30 69 1 19 62
M  V30 70 1 21 63
M  V30 71 1 21 64
M  V30 72 1 22 65
M  V30 73 1 23 66
M  V30 74 1 24 67
M  V30 75 1 25 68
M  V30 76 1 26 69
M  V30 77 1 26 70
M  V30 78 1 27 71
M  V30 79 1 27 72
M  V30 80 1 30 73
M  V30 81 1 31 74
M  V30 82 1 34 75
M  V30 83 1 35 76
M  V30 84 1 37 77
M  V30 85 1 37 78
M  V30 86 1 38 79
M  V30 87 1 39 80
M  V30 88 1 40 81
M  V30 89 1 41 82
M  V30 90 1 42 83
M  V30 91 1 42 84
M  V30 92 1 43 85
M  V30 93 1 43 86
M  V30 94 1 44 87
M  V30 95 1 45 88
M  V30 96 1 46 89
M  V30 97 1 47 90
M  V30 98 1 49 91
M  V30 99 1 49 92
M  V30 END BOND
M  V30 END CTAB
M  END

$$$$
