
     RDKit          3D

  0  0  0  0  0  0  0  0  0  0999 V3000
M  V30 BEGIN CTAB
M  V30 COUNTS 71 76 0 0 0
M  V30 BEGIN ATOM
M  V30 1 C 7.6646 -1.2745 -0.0661 0
M  V30 2 C 6.3911 -0.9211 0.3420 0
M  V30 3 C 5.3134 -1.5115 -0.2681 0
M  V30 4 C 3.9498 -1.1868 0.1116 0
M  V30 5 C 2.8841 -1.2128 -0.7598 0
M  V30 6 C 1.5902 -0.9042 -0.3957 0
M  V30 7 C 1.3291 -0.5430 0.9277 0
M  V30 8 C -0.0617 -0.2072 1.3331 0
M  V30 9 C -0.3576 1.2385 1.2163 0
M  V30 10 C -0.1332 1.9363 0.0480 0
M  V30 11 C -0.4043 3.2819 -0.1018 0
M  V30 12 C -0.9305 3.9770 0.9756 0
M  V30 13 C -1.2229 5.3978 0.8313 0
M  V30 14 C -1.1413 6.2912 1.8700 0
M  V30 15 C -1.4267 7.6421 1.7041 0
M  V30 16 C -1.8056 8.1299 0.4723 0
M  V30 17 N -2.1034 9.5242 0.2872 0
M  V30 18 C -1.8899 7.2394 -0.5753 0
M  V30 19 C -1.6041 5.9024 -0.3971 0
M  V30 20 C -1.1738 3.3277 2.1669 0
M  V30 21 C -0.8902 1.9845 2.2773 0
M  V30 22 C -1.0855 -1.0921 0.7672 0
M  V30 23 C -1.7626 -0.8770 -0.4072 0
M  V30 24 C -2.7256 -1.7885 -0.8645 0
M  V30 25 C -3.0304 -2.9296 -0.1598 0
M  V30 26 C -4.0514 -3.8539 -0.6862 0
M  V30 27 C -5.1201 -3.3883 -1.4185 0
M  V30 28 C -6.0677 -4.2569 -1.9066 0
M  V30 29 C -5.9875 -5.6160 -1.6849 0
M  V30 30 N -6.9492 -6.5277 -2.1767 0
M  V30 31 C -4.9047 -6.0762 -0.9443 0
M  V30 32 C -3.9573 -5.2086 -0.4562 0
M  V30 33 C -2.3586 -3.1571 1.0194 0
M  V30 34 C -1.4145 -2.2562 1.4605 0
M  V30 35 C 2.3828 -0.5114 1.8137 0
M  V30 36 C 3.6675 -0.8231 1.4299 0
M  V30 37 C 5.5303 -2.4319 -1.2616 0
M  V30 38 C 6.7776 -2.7890 -1.6730 0
M  V30 39 C 7.8595 -2.1983 -1.0628 0
M  V30 40 N 9.1593 -2.5674 -1.4880 0
M  V30 41 H 8.5346 -0.8280 0.3941 0
M  V30 42 H 6.2720 -0.1785 1.1424 0
M  V30 43 H 3.1106 -1.4989 -1.7933 0
M  V30 44 H 0.8125 -0.9469 -1.1309 0
M  V30 45 H -0.0500 -0.3869 2.4684 0
M  V30 46 H 0.2865 1.4562 -0.8420 0
M  V30 47 H -0.2077 3.7962 -1.0564 0
M  V30 48 H -0.8508 5.9433 2.8340 0
M  V30 49 H -1.3571 8.3372 2.5377 0
M  V30 50 H -2.6839 9.8627 -0.4993 0
M  V30 51 H -1.7045 10.1906 0.9883 0
M  V30 52 H -2.1904 7.6310 -1.5476 0
M  V30 53 H -1.6728 5.2096 -1.2248 0
M  V30 54 H -1.5834 3.8403 3.0264 0
M  V30 55 H -1.0650 1.4372 3.1908 0
M  V30 56 H -1.5641 -0.0081 -0.9920 0
M  V30 57 H -3.2596 -1.6051 -1.8043 0
M  V30 58 H -5.2138 -2.3209 -1.6118 0
M  V30 59 H -6.9261 -3.9165 -2.4905 0
M  V30 60 H -7.3124 -6.4267 -3.1545 0
M  V30 61 H -7.3120 -7.3031 -1.5951 0
M  V30 62 H -4.8244 -7.1422 -0.7596 0
M  V30 63 H -3.1107 -5.5705 0.1230 0
M  V30 64 H -2.5914 -4.0597 1.5884 0
M  V30 65 H -0.8893 -2.4480 2.3963 0
M  V30 66 H 2.1400 -0.2245 2.8393 0
M  V30 67 H 4.4697 -0.7872 2.1543 0
M  V30 68 H 4.6641 -2.9068 -1.7525 0
M  V30 69 H 6.9114 -3.5156 -2.4564 0
M  V30 70 H 9.2988 -2.8595 -2.4752 0
M  V30 71 H 9.9300 -2.5332 -0.7966 0
M  V30 END ATOM
M  V30 BEGIN BOND
M  V30 0 2 1 2
M  V30 1 1 2 3
M  V30 2 1 3 4
M  V30 3 2 4 5
M  V30 4 1 5 6
M  V30 5 2 6 7
M  V30 6 1 7 8
M  V30 7 1 8 9
M  V30 8 2 9 10
M  V30 9 1 10 11
M  V30 10 2 11 12
M  V30 11 1 12 13
M  V30 12 2 13 14
M  V30 13 1 14 15
M  V30 14 2 15 16
M  V30 15 1 16 17
M  V30 16 1 16 18
M  V30 17 2 18 19
M  V30 18 1 12 20
M  V30 19 2 20 21
M  V30 20 1 8 22
M  V30 21 2 22 23
M  V30 22 1 23 24
M  V30 23 2 24 25
M  V30 24 1 25 26
M  V30 25 2 26 27
M  V30 26 1 27 28
M  V30 27 2 28 29
M  V30 28 1 29 30
M  V30 29 1 29 31
M  V30 30 2 31 32
M  V30 31 1 25 33
M  V30 32 2 33 34
M  V30 33 1 7 35
M  V30 34 2 35 36
M  V30 35 2 3 37
M  V30 36 1 37 38
M  V30 37 2 38 39
M  V30 38 1 39 40
M  V30 39 1 39 1
M  V30 40 1 36 4
M  V30 41 1 21 9
M  V30 42 1 34 22
M  V30 43 1 19 13
M  V30 44 1 32 26
M  V30 45 1 1 41
M  V30 46 1 2 42
M  V30 47 1 5 43
M  V30 48 1 6 44
M  V30 49 1 8 45
M  V30 50 1 10 46
M  V30 51 1 11 47
M  V30 52 1 14 48
M  V30 53 1 15 49
M  V30 54 1 17 50
M  V30 55 1 17 51
M  V30 56 1 18 52
M  V30 57 1 19 53
M  V30 58 1 20 54
M  V30 59 1 21 55
M  V30 60 1 23 56
M  V30 61 1 24 57
M  V30 62 1 27 58
M  V30 63 1 28 59
M  V30 64 1 30 60
M  V30 65 1 30 61
M  V30 66 1 31 62
M  V30 67 1 32 63
M  V30 68 1 33 64
M  V30 69 1 34 65
M  V30 70 1 35 66
M  V30 71 1 36 67
M  V30 72 1 37 68
M  V30 73 1 38 69
M  V30 74 1 40 70
M  V30 75 1 40 71
M  V30 END BOND
M  V30 END CTAB
M  END

$$$$
