
     RDKit          3D

  0  0  0  0  0  0  0  0  0  0999 V3000
M  V30 BEGIN CTAB
M  V30 COUNTS 43 47 0 0 0
M  V30 BEGIN ATOM
M  V30 1 O -0.4795 2.9497 1.7276 0
M  V30 2 C -0.7809 2.5552 0.4324 0
M  V30 3 C -1.4265 3.4471 -0.4410 0
M  V30 4 N -1.7527 4.7388 0.0389 0
M  V30 5 C -1.7237 3.0487 -1.7288 0
M  V30 6 C -1.4072 1.7907 -2.1992 0
M  V30 7 C -0.7825 0.9372 -1.3438 0
M  V30 8 C -0.4722 1.3075 -0.0493 0
M  V30 9 C 0.2203 0.2562 0.7832 0
M  V30 10 C 1.3798 -0.1355 -0.0899 0
M  V30 11 C 2.6801 -0.1326 0.3593 0
M  V30 12 O 3.0188 0.2322 1.6520 0
M  V30 13 C 3.6696 -0.5179 -0.5506 0
M  V30 14 N 5.0127 -0.5242 -0.1164 0
M  V30 15 C 3.3364 -0.8804 -1.8341 0
M  V30 16 C 2.0329 -0.8836 -2.2854 0
M  V30 17 C 1.0740 -0.5071 -1.3938 0
M  V30 18 C -0.3911 -0.4662 -1.7580 0
M  V30 19 C -1.0162 -1.2945 -0.6593 0
M  V30 20 C -1.8411 -2.3465 -0.8971 0
M  V30 21 C -2.3570 -3.0336 0.1837 0
M  V30 22 C -2.0526 -2.6746 1.5018 0
M  V30 23 N -2.6172 -3.4234 2.5663 0
M  V30 24 C -1.2113 -1.6010 1.7203 0
M  V30 25 O -0.8796 -1.2063 3.0094 0
M  V30 26 C -0.7098 -0.9324 0.6394 0
M  V30 27 H -0.0206 2.3399 2.3736 0
M  V30 28 H -2.5055 5.3033 -0.3972 0
M  V30 29 H -1.2329 5.1335 0.8410 0
M  V30 30 H -2.2196 3.7453 -2.3870 0
M  V30 31 H -1.6297 1.4582 -3.2008 0
M  V30 32 H 0.4381 0.5103 1.7818 0
M  V30 33 H 2.3468 0.5096 2.3194 0
M  V30 34 H 5.7590 -1.0288 -0.6410 0
M  V30 35 H 5.3021 -0.0225 0.7457 0
M  V30 36 H 4.1299 -1.1805 -2.5349 0
M  V30 37 H 1.7372 -1.1606 -3.2801 0
M  V30 38 H -0.6356 -0.7412 -2.7458 0
M  V30 39 H -2.0636 -2.6076 -1.9222 0
M  V30 40 H -3.0166 -3.8750 0.0057 0
M  V30 41 H -2.9179 -2.9398 3.4358 0
M  V30 42 H -2.7488 -4.4530 2.5216 0
M  V30 43 H -1.2457 -1.6947 3.8170 0
M  V30 END ATOM
M  V30 BEGIN BOND
M  V30 0 1 1 2
M  V30 1 2 2 3
M  V30 2 1 3 4
M  V30 3 1 3 5
M  V30 4 2 5 6
M  V30 5 1 6 7
M  V30 6 2 7 8
M  V30 7 1 8 9
M  V30 8 1 9 10
M  V30 9 2 10 11
M  V30 10 1 11 12
M  V30 11 1 11 13
M  V30 12 1 13 14
M  V30 13 2 13 15
M  V30 14 1 15 16
M  V30 15 2 16 17
M  V30 16 1 17 18
M  V30 17 1 18 19
M  V30 18 2 19 20
M  V30 19 1 20 21
M  V30 20 2 21 22
M  V30 21 1 22 23
M  V30 22 1 22 24
M  V30 23 1 24 25
M  V30 24 2 24 26
M  V30 25 1 8 2
M  V30 26 1 26 9
M  V30 27 1 18 7
M  V30 28 1 26 19
M  V30 29 1 17 10
M  V30 30 1 1 27
M  V30 31 1 4 28
M  V30 32 1 4 29
M  V30 33 1 5 30
M  V30 34 1 6 31
M  V30 35 1 9 32
M  V30 36 1 12 33
M  V30 37 1 14 34
M  V30 38 1 14 35
M  V30 39 1 15 36
M  V30 40 1 16 37
M  V30 41 1 18 38
M  V30 42 1 20 39
M  V30 43 1 21 40
M  V30 44 1 23 41
M  V30 45 1 23 42
M  V30 46 1 25 43
M  V30 END BOND
M  V30 END CTAB
M  END

$$$$
