
     RDKit          3D

  0  0  0  0  0  0  0  0  0  0999 V3000
M  V30 BEGIN CTAB
M  V30 COUNTS 77 82 0 0 0
M  V30 BEGIN ATOM
M  V30 1 C -7.4619 -5.8806 2.4805 0
M  V30 2 C -6.4558 -5.0195 2.0739 0
M  V30 3 C -6.1844 -4.8551 0.7327 0
M  V30 4 C -5.1420 -3.9634 0.3147 0
M  V30 5 C -4.2511 -3.2180 -0.0599 0
M  V30 6 C -3.2003 -2.3557 -0.5236 0
M  V30 7 C -2.6017 -2.5679 -1.7685 0
M  V30 8 C -1.5880 -1.7439 -2.2241 0
M  V30 9 C -1.1530 -0.6946 -1.4479 0
M  V30 10 C -0.0697 0.1634 -1.9587 0
M  V30 11 C 1.2018 -0.4532 -1.5074 0
M  V30 12 C 2.0133 -1.0470 -2.4835 0
M  V30 13 C 3.1920 -1.6502 -2.1009 0
M  V30 14 C 3.5655 -1.6673 -0.7712 0
M  V30 15 C 4.7980 -2.2990 -0.3771 0
M  V30 16 C 5.8328 -2.8173 -0.0379 0
M  V30 17 C 7.0746 -3.4276 0.3437 0
M  V30 18 C 8.2388 -3.1258 -0.3375 0
M  V30 19 C 9.4299 -3.7127 0.0302 0
M  V30 20 C 9.4928 -4.6055 1.0742 0
M  V30 21 N 10.7077 -5.2067 1.4525 0
M  V30 22 C 8.3424 -4.9197 1.7665 0
M  V30 23 C 7.1671 -4.3260 1.3862 0
M  V30 24 C 2.7620 -1.0775 0.2083 0
M  V30 25 C 1.5880 -0.4778 -0.1803 0
M  V30 26 C -0.2173 1.5866 -1.5507 0
M  V30 27 C 0.8835 2.3049 -1.1952 0
M  V30 28 C 0.7724 3.6431 -0.7978 0
M  V30 29 C -0.4560 4.2641 -0.7581 0
M  V30 30 C -0.6262 5.6305 -0.3615 0
M  V30 31 C -0.7498 6.8013 -0.0291 0
M  V30 32 C -0.8685 8.1778 0.3540 0
M  V30 33 C -2.0851 8.6619 0.7813 0
M  V30 34 C -2.2435 9.9950 1.1629 0
M  V30 35 C -1.1638 10.8429 1.1116 0
M  V30 36 N -1.2702 12.2085 1.4890 0
M  V30 37 C 0.0660 10.3508 0.6790 0
M  V30 38 C 0.2136 9.0321 0.3038 0
M  V30 39 C -1.5512 3.5111 -1.1241 0
M  V30 40 C -1.4497 2.2006 -1.5138 0
M  V30 41 C -1.7239 -0.4665 -0.2252 0
M  V30 42 C -2.7434 -1.2969 0.2306 0
M  V30 43 C -6.9489 -5.5761 -0.1649 0
M  V30 44 C -7.9528 -6.4360 0.2308 0
M  V30 45 C -8.2115 -6.5884 1.5848 0
M  V30 46 N -9.2444 -7.4731 2.0009 0
M  V30 47 H -7.6357 -5.9750 3.5412 0
M  V30 48 H -5.8895 -4.4796 2.8395 0
M  V30 49 H -2.9141 -3.3800 -2.4073 0
M  V30 50 H -1.1151 -1.8944 -3.1833 0
M  V30 51 H -0.0490 0.1890 -3.0778 0
M  V30 52 H 1.7239 -1.0354 -3.5245 0
M  V30 53 H 3.8651 -2.1286 -2.8128 0
M  V30 54 H 8.2235 -2.4169 -1.1760 0
M  V30 55 H 10.3272 -3.4424 -0.5403 0
M  V30 56 H 11.6346 -4.7545 1.3043 0
M  V30 57 H 10.6849 -6.1555 1.9056 0
M  V30 58 H 8.3325 -5.6152 2.5969 0
M  V30 59 H 6.2352 -4.5540 1.9158 0
M  V30 60 H 3.0902 -1.1109 1.2456 0
M  V30 61 H 0.9549 -0.0183 0.5474 0
M  V30 62 H 1.8980 1.8771 -1.2145 0
M  V30 63 H 1.6700 4.2031 -0.5151 0
M  V30 64 H -2.9345 8.0125 0.8254 0
M  V30 65 H -3.2012 10.3796 1.4999 0
M  V30 66 H -2.1886 12.7008 1.4981 0
M  V30 67 H -0.4167 12.7483 1.7675 0
M  V30 68 H 0.8895 11.0504 0.6537 0
M  V30 69 H 1.1904 8.7044 -0.0237 0
M  V30 70 H -2.5658 3.9417 -1.1164 0
M  V30 71 H -2.3305 1.6094 -1.8034 0
M  V30 72 H -1.4002 0.3481 0.3989 0
M  V30 73 H -3.2134 -1.1352 1.2014 0
M  V30 74 H -6.7724 -5.4803 -1.2329 0
M  V30 75 H -8.5430 -6.9943 -0.5033 0
M  V30 76 H -9.2932 -7.8491 2.9712 0
M  V30 77 H -9.9855 -7.7705 1.3373 0
M  V30 END ATOM
M  V30 BEGIN BOND
M  V30 0 2 1 2
M  V30 1 1 2 3
M  V30 2 1 3 4
M  V30 3 3 4 5
M  V30 4 1 5 6
M  V30 5 2 6 7
M  V30 6 1 7 8
M  V30 7 2 8 9
M  V30 8 1 9 10
M  V30 9 1 10 11
M  V30 10 2 11 12
M  V30 11 1 12 13
M  V30 12 2 13 14
M  V30 13 1 14 15
M  V30 14 3 15 16
M  V30 15 1 16 17
M  V30 16 2 17 18
M  V30 17 1 18 19
M  V30 18 2 19 20
M  V30 19 1 20 21
M  V30 20 1 20 22
M  V30 21 2 22 23
M  V30 22 1 14 24
M  V30 23 2 24 25
M  V30 24 1 10 26
M  V30 25 2 26 27
M  V30 26 1 27 28
M  V30 27 2 28 29
M  V30 28 1 29 30
M  V30 29 3 30 31
M  V30 30 1 31 32
M  V30 31 2 32 33
M  V30 32 1 33 34
M  V30 33 2 34 35
M  V30 34 1 35 36
M  V30 35 1 35 37
M  V30 36 2 37 38
M  V30 37 1 29 39
M  V30 38 2 39 40
M  V30 39 1 9 41
M  V30 40 2 41 42
M  V30 41 2 3 43
M  V30 42 1 43 44
M  V30 43 2 44 45
M  V30 44 1 45 46
M  V30 45 1 45 1
M  V30 46 1 42 6
M  V30 47 1 25 11
M  V30 48 1 40 26
M  V30 49 1 23 17
M  V30 50 1 38 32
M  V30 51 1 1 47
M  V30 52 1 2 48
M  V30 53 1 7 49
M  V30 54 1 8 50
M  V30 55 1 10 51
M  V30 56 1 12 52
M  V30 57 1 13 53
M  V30 58 1 18 54
M  V30 59 1 19 55
M  V30 60 1 21 56
M  V30 61 1 21 57
M  V30 62 1 22 58
M  V30 63 1 23 59
M  V30 64 1 24 60
M  V30 65 1 25 61
M  V30 66 1 27 62
M  V30 67 1 28 63
M  V30 68 1 33 64
M  V30 69 1 34 65
M  V30 70 1 36 66
M  V30 71 1 36 67
M  V30 72 1 37 68
M  V30 73 1 38 69
M  V30 74 1 39 70
M  V30 75 1 40 71
M  V30 76 1 41 72
M  V30 77 1 42 73
M  V30 78 1 43 74
M  V30 79 1 44 75
M  V30 80 1 46 76
M  V30 81 1 46 77
M  V30 END BOND
M  V30 END CTAB
M  END

$$$$
