
     RDKit          3D

  0  0  0  0  0  0  0  0  0  0999 V3000
M  V30 BEGIN CTAB
M  V30 COUNTS 38 40 0 0 0
M  V30 BEGIN ATOM
M  V30 1 O -7.0288 -0.4843 0.2842 0
M  V30 2 C -5.6415 -0.4306 0.2352 0
M  V30 3 C -4.8228 -1.5179 0.1920 0
M  V30 4 C -3.4461 -1.4068 0.1445 0
M  V30 5 C -2.8645 -0.1500 0.1400 0
M  V30 6 C -1.4093 -0.0819 0.0888 0
M  V30 7 C -0.6545 -1.0286 -0.5677 0
M  V30 8 C 0.7281 -0.9363 -0.5962 0
M  V30 9 C 1.4082 0.0912 0.0213 0
M  V30 10 C 2.8552 0.1987 0.0003 0
M  V30 11 C 3.4963 1.4171 0.0247 0
M  V30 12 C 4.8724 1.5333 0.0055 0
M  V30 13 C 5.6324 0.3891 -0.0399 0
M  V30 14 O 7.0169 0.4680 -0.0604 0
M  V30 15 C 5.0307 -0.8445 -0.0655 0
M  V30 16 N 5.8547 -2.0043 -0.1130 0
M  V30 17 C 3.6653 -0.9295 -0.0454 0
M  V30 18 C 0.6541 1.0398 0.6789 0
M  V30 19 C -0.7369 0.9482 0.7082 0
M  V30 20 C -3.6722 0.9432 0.1828 0
M  V30 21 C -5.0516 0.8329 0.2304 0
M  V30 22 N -5.8824 1.9913 0.2743 0
M  V30 23 H -7.4432 -1.4200 0.2873 0
M  V30 24 H -5.3025 -2.5028 0.1970 0
M  V30 25 H -2.8308 -2.3076 0.1111 0
M  V30 26 H -1.1835 -1.8379 -1.0542 0
M  V30 27 H 1.2720 -1.7059 -1.1247 0
M  V30 28 H 2.8948 2.3244 0.0608 0
M  V30 29 H 5.3678 2.4925 0.0253 0
M  V30 30 H 7.4819 1.3695 -0.0431 0
M  V30 31 H 5.5017 -2.9141 -0.5165 0
M  V30 32 H 6.8407 -2.0165 0.2442 0
M  V30 33 H 3.1526 -1.8931 -0.0648 0
M  V30 34 H 1.1134 1.8765 1.1886 0
M  V30 35 H -1.2758 1.7198 1.2391 0
M  V30 36 H -3.2070 1.9315 0.1784 0
M  V30 37 H -5.5137 2.9180 0.5681 0
M  V30 38 H -6.8720 1.9278 0.0127 0
M  V30 END ATOM
M  V30 BEGIN BOND
M  V30 0 1 1 2
M  V30 1 2 2 3
M  V30 2 1 3 4
M  V30 3 2 4 5
M  V30 4 1 5 6
M  V30 5 2 6 7
M  V30 6 1 7 8
M  V30 7 2 8 9
M  V30 8 1 9 10
M  V30 9 2 10 11
M  V30 10 1 11 12
M  V30 11 2 12 13
M  V30 12 1 13 14
M  V30 13 1 13 15
M  V30 14 1 15 16
M  V30 15 2 15 17
M  V30 16 1 9 18
M  V30 17 2 18 19
M  V30 18 1 5 20
M  V30 19 2 20 21
M  V30 20 1 21 22
M  V30 21 1 21 2
M  V30 22 1 19 6
M  V30 23 1 17 10
M  V30 24 1 1 23
M  V30 25 1 3 24
M  V30 26 1 4 25
M  V30 27 1 7 26
M  V30 28 1 8 27
M  V30 29 1 11 28
M  V30 30 1 12 29
M  V30 31 1 14 30
M  V30 32 1 16 31
M  V30 33 1 16 32
M  V30 34 1 17 33
M  V30 35 1 18 34
M  V30 36 1 19 35
M  V30 37 1 20 36
M  V30 38 1 22 37
M  V30 39 1 22 38
M  V30 END BOND
M  V30 END CTAB
M  END

$$$$
