
     RDKit          3D

  0  0  0  0  0  0  0  0  0  0999 V3000
M  V30 BEGIN CTAB
M  V30 COUNTS 42 42 0 0 0
M  V30 BEGIN ATOM
M  V30 1 N -0.7323 -0.3480 1.2150 0
M  V30 2 C -1.9399 0.3186 0.9062 0
M  V30 3 O -2.7373 -0.1389 0.0513 0
M  V30 4 C -2.3014 1.5749 1.5803 0
M  V30 5 N -1.2909 1.9891 2.5435 0
M  V30 6 C -2.4928 2.6969 0.6087 0
M  V30 7 C -0.3154 -1.5801 0.5948 0
M  V30 8 C -0.1128 -2.6980 1.5626 0
M  V30 9 C 0.0475 -3.9825 0.7418 0
M  V30 10 C 1.3299 -3.8227 -0.0439 0
M  V30 11 C 1.2662 -2.6423 -0.9799 0
M  V30 12 C 0.9709 -1.4062 -0.1928 0
M  V30 13 N 0.8611 -0.2433 -1.0613 0
M  V30 14 C 1.6868 0.8812 -0.9583 0
M  V30 15 O 2.5881 0.9454 -0.0883 0
M  V30 16 C 1.5022 2.0204 -1.8872 0
M  V30 17 N 0.4336 1.7966 -2.8223 0
M  V30 18 C 1.2917 3.3224 -1.1140 0
M  V30 19 H -0.0843 0.0530 1.9308 0
M  V30 20 H -3.2586 1.4275 2.1554 0
M  V30 21 H -0.4051 2.2600 2.0742 0
M  V30 22 H -1.7064 2.7971 3.0707 0
M  V30 23 H -2.2227 3.6506 1.0994 0
M  V30 24 H -3.5048 2.7231 0.1607 0
M  V30 25 H -1.7864 2.5649 -0.2473 0
M  V30 26 H -1.0982 -1.8770 -0.1339 0
M  V30 27 H 0.8600 -2.5987 2.1239 0
M  V30 28 H -0.9719 -2.8521 2.2139 0
M  V30 29 H -0.7784 -4.1451 0.0532 0
M  V30 30 H 0.2179 -4.8631 1.4256 0
M  V30 31 H 2.1966 -3.6476 0.6493 0
M  V30 32 H 1.5025 -4.7343 -0.6527 0
M  V30 33 H 2.3006 -2.5412 -1.4194 0
M  V30 34 H 0.5347 -2.7697 -1.7810 0
M  V30 35 H 1.7960 -1.2061 0.5123 0
M  V30 36 H 0.1096 -0.2971 -1.7866 0
M  V30 37 H 2.4450 2.1615 -2.4917 0
M  V30 38 H 0.6117 2.1902 -3.7719 0
M  V30 39 H -0.4902 2.1009 -2.4379 0
M  V30 40 H 0.7708 3.0851 -0.1637 0
M  V30 41 H 0.6552 4.0283 -1.6824 0
M  V30 42 H 2.2513 3.8065 -0.8552 0
M  V30 END ATOM
M  V30 BEGIN BOND
M  V30 0 1 1 2
M  V30 1 2 2 3
M  V30 2 1 2 4
M  V30 3 1 4 5
M  V30 4 1 4 6
M  V30 5 1 1 7
M  V30 6 1 7 8
M  V30 7 1 8 9
M  V30 8 1 9 10
M  V30 9 1 10 11
M  V30 10 1 11 12
M  V30 11 1 12 13
M  V30 12 1 13 14
M  V30 13 2 14 15
M  V30 14 1 14 16
M  V30 15 1 16 17
M  V30 16 1 16 18
M  V30 17 1 12 7
M  V30 18 1 1 19
M  V30 19 1 4 20
M  V30 20 1 5 21
M  V30 21 1 5 22
M  V30 22 1 6 23
M  V30 23 1 6 24
M  V30 24 1 6 25
M  V30 25 1 7 26
M  V30 26 1 8 27
M  V30 27 1 8 28
M  V30 28 1 9 29
M  V30 29 1 9 30
M  V30 30 1 10 31
M  V30 31 1 10 32
M  V30 32 1 11 33
M  V30 33 1 11 34
M  V30 34 1 12 35
M  V30 35 1 13 36
M  V30 36 1 16 37
M  V30 37 1 17 38
M  V30 38 1 17 39
M  V30 39 1 18 40
M  V30 40 1 18 41
M  V30 41 1 18 42
M  V30 END BOND
M  V30 END CTAB
M  END

$$$$
