
     RDKit          3D

  0  0  0  0  0  0  0  0  0  0999 V3000
M  V30 BEGIN CTAB
M  V30 COUNTS 39 39 0 0 0
M  V30 BEGIN ATOM
M  V30 1 C -6.1940 1.5132 -0.1451 0
M  V30 2 C -6.0733 0.6948 -1.2487 0
M  V30 3 C -5.0381 -0.2244 -1.3553 0
M  V30 4 C -4.0847 -0.3592 -0.3617 0
M  V30 5 C -2.9654 -1.3269 -0.4368 0
M  V30 6 N -2.7828 -2.0414 0.8130 0
M  V30 7 C -1.7067 -0.6948 -0.8977 0
M  V30 8 O -1.7243 -0.0416 -1.9724 0
M  V30 9 N -0.5036 -0.8081 -0.1664 0
M  V30 10 C 0.7114 -0.1909 -0.6227 0
M  V30 11 C 1.8592 -0.4503 0.3221 0
M  V30 12 N 3.0502 0.1797 -0.1650 0
M  V30 13 C 4.3023 0.1248 0.4933 0
M  V30 14 O 4.3800 -0.5155 1.5736 0
M  V30 15 C 5.5188 0.7798 -0.0231 0
M  V30 16 N 6.6518 0.5586 0.8523 0
M  V30 17 C 5.9123 0.1968 -1.3851 0
M  V30 18 C -4.2105 0.4619 0.7397 0
M  V30 19 C -5.2456 1.3815 0.8473 0
M  V30 20 H -7.0103 2.2273 -0.0773 0
M  V30 21 H -6.8211 0.8038 -2.0231 0
M  V30 22 H -4.9508 -0.8630 -2.2253 0
M  V30 23 H -3.2755 -2.1037 -1.1904 0
M  V30 24 H -2.3799 -1.4301 1.5608 0
M  V30 25 H -3.7416 -2.3048 1.1431 0
M  V30 26 H -0.4840 -1.3474 0.7232 0
M  V30 27 H 0.9857 -0.6781 -1.6018 0
M  V30 28 H 0.6136 0.8865 -0.8489 0
M  V30 29 H 2.0681 -1.5351 0.4105 0
M  V30 30 H 1.5966 -0.1013 1.3516 0
M  V30 31 H 3.0219 0.7290 -1.0744 0
M  V30 32 H 5.3536 1.8588 -0.0921 0
M  V30 33 H 7.5009 0.9136 0.3508 0
M  V30 34 H 6.5446 1.0725 1.7679 0
M  V30 35 H 6.9393 0.4988 -1.6410 0
M  V30 36 H 5.1641 0.6258 -2.1114 0
M  V30 37 H 5.8544 -0.9024 -1.3526 0
M  V30 38 H -3.4871 0.3793 1.5241 0
M  V30 39 H -5.3495 2.0325 1.7152 0
M  V30 END ATOM
M  V30 BEGIN BOND
M  V30 0 2 1 2
M  V30 1 1 2 3
M  V30 2 2 3 4
M  V30 3 1 4 5
M  V30 4 1 5 6
M  V30 5 1 5 7
M  V30 6 2 7 8
M  V30 7 1 7 9
M  V30 8 1 9 10
M  V30 9 1 10 11
M  V30 10 1 11 12
M  V30 11 1 12 13
M  V30 12 2 13 14
M  V30 13 1 13 15
M  V30 14 1 15 16
M  V30 15 1 15 17
M  V30 16 1 4 18
M  V30 17 2 18 19
M  V30 18 1 19 1
M  V30 19 1 1 20
M  V30 20 1 2 21
M  V30 21 1 3 22
M  V30 22 1 5 23
M  V30 23 1 6 24
M  V30 24 1 6 25
M  V30 25 1 9 26
M  V30 26 1 10 27
M  V30 27 1 10 28
M  V30 28 1 11 29
M  V30 29 1 11 30
M  V30 30 1 12 31
M  V30 31 1 15 32
M  V30 32 1 16 33
M  V30 33 1 16 34
M  V30 34 1 17 35
M  V30 35 1 17 36
M  V30 36 1 17 37
M  V30 37 1 18 38
M  V30 38 1 19 39
M  V30 END BOND
M  V30 END CTAB
M  END

$$$$
