
     RDKit          3D

  0  0  0  0  0  0  0  0  0  0999 V3000
M  V30 BEGIN CTAB
M  V30 COUNTS 49 51 0 0 0
M  V30 BEGIN ATOM
M  V30 1 C -2.3927 -2.9973 1.2272 0
M  V30 2 C -1.7010 -1.7960 1.0785 0
M  V30 3 C -1.1651 -1.4194 -0.1309 0
M  V30 4 C -0.4211 -0.1545 -0.3431 0
M  V30 5 N 0.2140 0.3792 0.8078 0
M  V30 6 C 1.2326 -0.4221 1.4002 0
M  V30 7 C 2.3834 -0.7064 0.4974 0
M  V30 8 C 3.3931 0.2256 0.4046 0
M  V30 9 C 4.4824 0.0041 -0.4189 0
M  V30 10 C 4.5804 -1.1522 -1.1628 0
M  V30 11 N 5.7249 -1.3615 -2.0144 0
M  V30 12 C 3.5814 -2.0933 -1.0820 0
M  V30 13 C 2.4862 -1.8572 -0.2461 0
M  V30 14 C 0.5662 1.7540 0.6897 0
M  V30 15 C -0.5909 2.6507 0.4657 0
M  V30 16 C -1.4635 2.9303 1.4963 0
M  V30 17 C -2.5516 3.7673 1.3408 0
M  V30 18 C -2.7831 4.3513 0.1101 0
M  V30 19 N -3.8974 5.2184 -0.0793 0
M  V30 20 C -1.9341 4.0938 -0.9356 0
M  V30 21 C -0.8544 3.2517 -0.7474 0
M  V30 22 C -1.3397 -2.2812 -1.1961 0
M  V30 23 C -2.0235 -3.4722 -1.0553 0
M  V30 24 C -2.5635 -3.8512 0.1642 0
M  V30 25 N -3.2705 -5.0724 0.3293 0
M  V30 26 H -2.8099 -3.2766 2.1966 0
M  V30 27 H -1.5821 -1.1427 1.9311 0
M  V30 28 H -1.1374 0.6283 -0.7258 0
M  V30 29 H 0.3028 -0.2674 -1.2053 0
M  V30 30 H 1.5922 0.1328 2.3221 0
M  V30 31 H 0.8003 -1.3568 1.8091 0
M  V30 32 H 3.3462 1.1590 0.9861 0
M  V30 33 H 5.2777 0.7344 -0.4944 0
M  V30 34 H 6.3172 -0.5556 -2.3045 0
M  V30 35 H 5.9611 -2.3026 -2.3379 0
M  V30 36 H 3.6701 -2.9986 -1.6720 0
M  V30 37 H 1.7284 -2.6109 -0.2051 0
M  V30 38 H 1.0444 2.0867 1.6346 0
M  V30 39 H 1.3448 1.8876 -0.1082 0
M  V30 40 H -1.2895 2.4736 2.4739 0
M  V30 41 H -3.2210 3.9717 2.1616 0
M  V30 42 H -3.7519 6.2512 -0.0884 0
M  V30 43 H -4.8294 4.7678 -0.2029 0
M  V30 44 H -2.1227 4.5549 -1.8949 0
M  V30 45 H -0.1948 3.0587 -1.5809 0
M  V30 46 H -0.9224 -2.0027 -2.1671 0
M  V30 47 H -2.1670 -4.1523 -1.8749 0
M  V30 48 H -3.4880 -5.6486 -0.5113 0
M  V30 49 H -3.5617 -5.3814 1.2590 0
M  V30 END ATOM
M  V30 BEGIN BOND
M  V30 0 2 1 2
M  V30 1 1 2 3
M  V30 2 1 3 4
M  V30 3 1 4 5
M  V30 4 1 5 6
M  V30 5 1 6 7
M  V30 6 2 7 8
M  V30 7 1 8 9
M  V30 8 2 9 10
M  V30 9 1 10 11
M  V30 10 1 10 12
M  V30 11 2 12 13
M  V30 12 1 5 14
M  V30 13 1 14 15
M  V30 14 2 15 16
M  V30 15 1 16 17
M  V30 16 2 17 18
M  V30 17 1 18 19
M  V30 18 1 18 20
M  V30 19 2 20 21
M  V30 20 2 3 22
M  V30 21 1 22 23
M  V30 22 2 23 24
M  V30 23 1 24 25
M  V30 24 1 24 1
M  V30 25 1 13 7
M  V30 26 1 21 15
M  V30 27 1 1 26
M  V30 28 1 2 27
M  V30 29 1 4 28
M  V30 30 1 4 29
M  V30 31 1 6 30
M  V30 32 1 6 31
M  V30 33 1 8 32
M  V30 34 1 9 33
M  V30 35 1 11 34
M  V30 36 1 11 35
M  V30 37 1 12 36
M  V30 38 1 13 37
M  V30 39 1 14 38
M  V30 40 1 14 39
M  V30 41 1 16 40
M  V30 42 1 17 41
M  V30 43 1 19 42
M  V30 44 1 19 43
M  V30 45 1 20 44
M  V30 46 1 21 45
M  V30 47 1 22 46
M  V30 48 1 23 47
M  V30 49 1 25 48
M  V30 50 1 25 49
M  V30 END BOND
M  V30 END CTAB
M  END

$$$$
