
     RDKit          3D

  0  0  0  0  0  0  0  0  0  0999 V3000
M  V30 BEGIN CTAB
M  V30 COUNTS 66 66 0 0 0
M  V30 BEGIN ATOM
M  V30 1 C 2.3439 1.6654 0.7246 0
M  V30 2 N 2.1388 2.9730 1.1904 0
M  V30 3 C 1.1201 0.9266 0.3430 0
M  V30 4 C 1.3443 -0.4267 -0.0161 0
M  V30 5 O 2.5995 -0.9187 -0.0451 0
M  V30 6 C 3.3202 -1.5343 0.9300 0
M  V30 7 C 4.7232 -1.8994 0.3715 0
M  V30 8 C 4.5497 -2.8299 -0.8058 0
M  V30 9 C 5.9298 -3.1673 -1.3267 0
M  V30 10 C 0.2883 -1.2802 -0.3464 0
M  V30 11 C 0.6603 -2.6452 -0.8132 0
M  V30 12 N -0.3712 -3.4842 -1.2623 0
M  V30 13 C -0.9898 -0.7843 -0.3045 0
M  V30 14 O -2.0775 -1.5582 -0.5963 0
M  V30 15 C -2.9069 -2.3380 0.1920 0
M  V30 16 C -3.9788 -3.0007 -0.6679 0
M  V30 17 C -4.8996 -3.8561 0.1524 0
M  V30 18 C -4.2106 -4.9619 0.8729 0
M  V30 19 C -1.2179 0.5794 0.0570 0
M  V30 20 C -2.6257 0.9786 0.1860 0
M  V30 21 N -2.9395 2.2931 0.5846 0
M  V30 22 C -0.1684 1.3980 0.3587 0
M  V30 23 O -0.3720 2.7582 0.6669 0
M  V30 24 C -0.3785 3.7059 -0.4130 0
M  V30 25 C -0.6194 5.1165 0.0462 0
M  V30 26 C -0.6236 6.0872 -1.1067 0
M  V30 27 C -0.8783 7.4669 -0.5154 0
M  V30 28 H 2.9529 1.7616 -0.2407 0
M  V30 29 H 3.0278 1.0782 1.3864 0
M  V30 30 H 2.2712 3.1317 2.2153 0
M  V30 31 H 2.5932 3.7099 0.6265 0
M  V30 32 H 3.5032 -0.9673 1.8618 0
M  V30 33 H 2.8308 -2.4925 1.2497 0
M  V30 34 H 5.2099 -0.9536 0.0756 0
M  V30 35 H 5.2283 -2.4385 1.1885 0
M  V30 36 H 4.0619 -3.7678 -0.4815 0
M  V30 37 H 3.9418 -2.3952 -1.6061 0
M  V30 38 H 6.4587 -3.7259 -0.5277 0
M  V30 39 H 5.9060 -3.8289 -2.2118 0
M  V30 40 H 6.4994 -2.2441 -1.5552 0
M  V30 41 H 1.4933 -2.5282 -1.5700 0
M  V30 42 H 1.1637 -3.1911 0.0421 0
M  V30 43 H -0.4260 -3.5422 -2.2988 0
M  V30 44 H -0.4207 -4.3940 -0.7900 0
M  V30 45 H -2.3175 -3.0877 0.7574 0
M  V30 46 H -3.4439 -1.7400 0.9555 0
M  V30 47 H -4.5167 -2.2205 -1.2340 0
M  V30 48 H -3.4517 -3.6420 -1.3989 0
M  V30 49 H -5.3632 -3.1848 0.9280 0
M  V30 50 H -5.7322 -4.2704 -0.4212 0
M  V30 51 H -4.9774 -5.7512 1.1041 0
M  V30 52 H -3.4336 -5.4756 0.2798 0
M  V30 53 H -3.8544 -4.6043 1.8557 0
M  V30 54 H -3.2328 0.7033 -0.7069 0
M  V30 55 H -3.0965 0.3156 1.0046 0
M  V30 56 H -3.7033 2.6803 0.0218 0
M  V30 57 H -3.1600 2.4241 1.5804 0
M  V30 58 H 0.6097 3.7352 -0.9593 0
M  V30 59 H -1.1677 3.4355 -1.1363 0
M  V30 60 H 0.2089 5.4656 0.7309 0
M  V30 61 H -1.5515 5.2458 0.6216 0
M  V30 62 H 0.3642 6.1531 -1.6091 0
M  V30 63 H -1.4149 5.8978 -1.8403 0
M  V30 64 H -1.9579 7.6135 -0.2886 0
M  V30 65 H -0.2712 7.5708 0.4100 0
M  V30 66 H -0.5921 8.2603 -1.2234 0
M  V30 END ATOM
M  V30 BEGIN BOND
M  V30 0 1 1 2
M  V30 1 1 1 3
M  V30 2 2 3 4
M  V30 3 1 4 5
M  V30 4 1 5 6
M  V30 5 1 6 7
M  V30 6 1 7 8
M  V30 7 1 8 9
M  V30 8 1 4 10
M  V30 9 1 10 11
M  V30 10 1 11 12
M  V30 11 2 10 13
M  V30 12 1 13 14
M  V30 13 1 14 15
M  V30 14 1 15 16
M  V30 15 1 16 17
M  V30 16 1 17 18
M  V30 17 1 13 19
M  V30 18 1 19 20
M  V30 19 1 20 21
M  V30 20 2 19 22
M  V30 21 1 22 23
M  V30 22 1 23 24
M  V30 23 1 24 25
M  V30 24 1 25 26
M  V30 25 1 26 27
M  V30 26 1 22 3
M  V30 27 1 1 28
M  V30 28 1 1 29
M  V30 29 1 2 30
M  V30 30 1 2 31
M  V30 31 1 6 32
M  V30 32 1 6 33
M  V30 33 1 7 34
M  V30 34 1 7 35
M  V30 35 1 8 36
M  V30 36 1 8 37
M  V30 37 1 9 38
M  V30 38 1 9 39
M  V30 39 1 9 40
M  V30 40 1 11 41
M  V30 41 1 11 42
M  V30 42 1 12 43
M  V30 43 1 12 44
M  V30 44 1 15 45
M  V30 45 1 15 46
M  V30 46 1 16 47
M  V30 47 1 16 48
M  V30 48 1 17 49
M  V30 49 1 17 50
M  V30 50 1 18 51
M  V30 51 1 18 52
M  V30 52 1 18 53
M  V30 53 1 20 54
M  V30 54 1 20 55
M  V30 55 1 21 56
M  V30 56 1 21 57
M  V30 57 1 24 58
M  V30 58 1 24 59
M  V30 59 1 25 60
M  V30 60 1 25 61
M  V30 61 1 26 62
M  V30 62 1 26 63
M  V30 63 1 27 64
M  V30 64 1 27 65
M  V30 65 1 27 66
M  V30 END BOND
M  V30 END CTAB
M  END

$$$$
