
     RDKit          3D

  0  0  0  0  0  0  0  0  0  0999 V3000
M  V30 BEGIN CTAB
M  V30 COUNTS 28 27 0 0 0
M  V30 BEGIN ATOM
M  V30 1 C -2.1329 -1.2710 -0.4813 0
M  V30 2 N -2.9353 -0.8723 0.6382 0
M  V30 3 C -1.0547 -0.2932 -0.8222 0
M  V30 4 N -0.1010 -0.0246 0.1900 0
M  V30 5 C 0.7908 -1.0718 0.5477 0
M  V30 6 C 1.7927 -1.4236 -0.5233 0
M  V30 7 N 2.6749 -2.5005 -0.0459 0
M  V30 8 C 0.5380 1.2598 0.0727 0
M  V30 9 C -0.3572 2.4337 0.3323 0
M  V30 10 N 0.4597 3.6473 0.1813 0
M  V30 11 H -1.8097 -2.3122 -0.3439 0
M  V30 12 H -2.8357 -1.2875 -1.3735 0
M  V30 13 H -3.7765 -1.4900 0.6666 0
M  V30 14 H -2.3542 -0.9903 1.5097 0
M  V30 15 H -1.5843 0.6808 -1.0342 0
M  V30 16 H -0.6072 -0.5569 -1.8295 0
M  V30 17 H 1.3614 -0.7105 1.4527 0
M  V30 18 H 0.3009 -2.0082 0.8738 0
M  V30 19 H 2.3807 -0.5554 -0.8810 0
M  V30 20 H 1.3042 -1.8608 -1.4304 0
M  V30 21 H 2.9811 -2.3415 0.9427 0
M  V30 22 H 3.5504 -2.3975 -0.6183 0
M  V30 23 H 1.3334 1.2666 0.8647 0
M  V30 24 H 1.0268 1.4140 -0.9002 0
M  V30 25 H -1.1629 2.5456 -0.4171 0
M  V30 26 H -0.7348 2.4678 1.3690 0
M  V30 27 H 1.0658 3.7569 1.0067 0
M  V30 28 H -0.1144 4.4953 0.0526 0
M  V30 END ATOM
M  V30 BEGIN BOND
M  V30 0 1 1 2
M  V30 1 1 1 3
M  V30 2 1 3 4
M  V30 3 1 4 5
M  V30 4 1 5 6
M  V30 5 1 6 7
M  V30 6 1 4 8
M  V30 7 1 8 9
M  V30 8 1 9 10
M  V30 9 1 1 11
M  V30 10 1 1 12
M  V30 11 1 2 13
M  V30 12 1 2 14
M  V30 13 1 3 15
M  V30 14 1 3 16
M  V30 15 1 5 17
M  V30 16 1 5 18
M  V30 17 1 6 19
M  V30 18 1 6 20
M  V30 19 1 7 21
M  V30 20 1 7 22
M  V30 21 1 8 23
M  V30 22 1 8 24
M  V30 23 1 9 25
M  V30 24 1 9 26
M  V30 25 1 10 27
M  V30 26 1 10 28
M  V30 END BOND
M  V30 END CTAB
M  END

$$$$
