
     RDKit          3D

  0  0  0  0  0  0  0  0  0  0999 V3000
M  V30 BEGIN CTAB
M  V30 COUNTS 72 81 0 0 0
M  V30 BEGIN ATOM
M  V30 1 C -2.4619 -4.7080 -0.3503 0
M  V30 2 C -3.8949 -4.7562 -0.4846 0
M  V30 3 C -4.5063 -4.7828 -1.7265 0
M  V30 4 C -5.8712 -4.8558 -1.8085 0
M  V30 5 C -6.6279 -4.9021 -0.6614 0
M  V30 6 N -8.0405 -4.9787 -0.7498 0
M  V30 7 C -6.0054 -4.8747 0.5666 0
M  V30 8 C -4.6417 -4.8021 0.6930 0
M  V30 9 C -1.8000 -3.6453 -0.2728 0
M  V30 10 C -0.3936 -3.6353 -0.1412 0
M  V30 11 C 0.8070 -4.3309 -0.0380 0
M  V30 12 C 2.0900 -3.6883 0.0925 0
M  V30 13 C 2.2634 -2.3121 0.1291 0
M  V30 14 C 3.1248 -1.1951 0.2282 0
M  V30 15 C 4.3709 -1.3267 0.3443 0
M  V30 16 C 5.2893 -0.2224 0.4489 0
M  V30 17 C 5.5911 0.2444 1.7107 0
M  V30 18 C 6.4864 1.2807 1.8315 0
M  V30 19 C 7.0792 1.8541 0.7382 0
M  V30 20 N 7.9963 2.9187 0.8953 0
M  V30 21 C 6.7712 1.3809 -0.5181 0
M  V30 22 C 5.8796 0.3471 -0.6566 0
M  V30 23 C 2.4240 0.0059 0.1805 0
M  V30 24 C 2.3980 1.4039 0.2007 0
M  V30 25 C 1.2060 2.1910 0.1005 0
M  V30 26 C -0.0731 1.6688 -0.0292 0
M  V30 27 C -1.4479 1.8498 -0.1560 0
M  V30 28 C -2.0126 2.9617 -0.1875 0
M  V30 29 C -1.4183 4.2624 -0.1045 0
M  V30 30 C -1.2684 4.8187 1.1420 0
M  V30 31 C -0.7118 6.0772 1.2951 0
M  V30 32 C -0.3050 6.7770 0.1875 0
M  V30 33 N 0.2757 8.0913 0.3393 0
M  V30 34 C -0.4492 6.2322 -1.0647 0
M  V30 35 C -1.0054 4.9775 -1.2014 0
M  V30 36 C -2.1339 0.6307 -0.2404 0
M  V30 37 C -3.3256 -0.0542 -0.3620 0
M  V30 38 C -3.4229 -1.4944 -0.3926 0
M  V30 39 C -2.3297 -2.3528 -0.3034 0
M  V30 40 C -1.2308 -1.5945 -0.1895 0
M  V30 41 C -0.1188 -2.3325 -0.0963 0
M  V30 42 C 1.0654 -1.7412 0.0242 0
M  V30 43 C 1.1520 -0.4046 0.0533 0
M  V30 44 C 0.0487 0.3294 -0.0393 0
M  V30 45 C -1.1420 -0.2695 -0.1613 0
M  V30 46 H -1.9885 -5.6658 -0.3203 0
M  V30 47 H -3.9177 -4.7468 -2.6149 0
M  V30 48 H -6.4103 -4.8800 -2.7621 0
M  V30 49 H -8.7003 -4.6388 -0.0204 0
M  V30 50 H -8.4751 -5.4082 -1.6088 0
M  V30 51 H -6.5844 -4.9102 1.4926 0
M  V30 52 H -4.1326 -4.7793 1.6491 0
M  V30 53 H 0.6713 -5.3636 -0.0656 0
M  V30 54 H 2.9799 -4.2229 0.1689 0
M  V30 55 H 4.8420 -2.2894 0.3738 0
M  V30 56 H 5.1212 -0.2092 2.5878 0
M  V30 57 H 6.7085 1.6316 2.8320 0
M  V30 58 H 8.0274 3.5334 1.7382 0
M  V30 59 H 8.7122 3.1534 0.1545 0
M  V30 60 H 7.2615 1.8619 -1.3532 0
M  V30 61 H 5.6255 -0.0362 -1.6230 0
M  V30 62 H 3.3569 1.8041 0.2982 0
M  V30 63 H 1.2252 3.2256 0.1194 0
M  V30 64 H -3.1031 2.9969 -0.2913 0
M  V30 65 H -1.5755 4.2977 2.0199 0
M  V30 66 H -0.5851 6.5356 2.2832 0
M  V30 67 H 0.3248 8.7869 -0.4306 0
M  V30 68 H 0.6564 8.3426 1.2559 0
M  V30 69 H -0.1148 6.8185 -1.9164 0
M  V30 70 H -1.1285 4.5270 -2.1875 0
M  V30 71 H -4.1553 0.5797 -0.4297 0
M  V30 72 H -4.3216 -1.9881 -0.4835 0
M  V30 END ATOM
M  V30 BEGIN BOND
M  V30 0 1 1 2
M  V30 1 2 2 3
M  V30 2 1 3 4
M  V30 3 2 4 5
M  V30 4 1 5 6
M  V30 5 1 5 7
M  V30 6 2 7 8
M  V30 7 2 1 9
M  V30 8 1 9 10
M  V30 9 2 10 11
M  V30 10 1 11 12
M  V30 11 2 12 13
M  V30 12 1 13 14
M  V30 13 2 14 15
M  V30 14 1 15 16
M  V30 15 2 16 17
M  V30 16 1 17 18
M  V30 17 2 18 19
M  V30 18 1 19 20
M  V30 19 1 19 21
M  V30 20 2 21 22
M  V30 21 1 14 23
M  V30 22 2 23 24
M  V30 23 1 24 25
M  V30 24 2 25 26
M  V30 25 1 26 27
M  V30 26 2 27 28
M  V30 27 1 28 29
M  V30 28 2 29 30
M  V30 29 1 30 31
M  V30 30 2 31 32
M  V30 31 1 32 33
M  V30 32 1 32 34
M  V30 33 2 34 35
M  V30 34 1 27 36
M  V30 35 2 36 37
M  V30 36 1 37 38
M  V30 37 2 38 39
M  V30 38 1 39 40
M  V30 39 2 40 41
M  V30 40 1 41 42
M  V30 41 2 42 43
M  V30 42 1 43 44
M  V30 43 2 44 45
M  V30 44 1 8 2
M  V30 45 1 39 9
M  V30 46 1 45 40
M  V30 47 1 41 10
M  V30 48 1 42 13
M  V30 49 1 22 16
M  V30 50 1 43 23
M  V30 51 1 44 26
M  V30 52 1 35 29
M  V30 53 1 45 36
M  V30 54 1 1 46
M  V30 55 1 3 47
M  V30 56 1 4 48
M  V30 57 1 6 49
M  V30 58 1 6 50
M  V30 59 1 7 51
M  V30 60 1 8 52
M  V30 61 1 11 53
M  V30 62 1 12 54
M  V30 63 1 15 55
M  V30 64 1 17 56
M  V30 65 1 18 57
M  V30 66 1 20 58
M  V30 67 1 20 59
M  V30 68 1 21 60
M  V30 69 1 22 61
M  V30 70 1 24 62
M  V30 71 1 25 63
M  V30 72 1 28 64
M  V30 73 1 30 65
M  V30 74 1 31 66
M  V30 75 1 33 67
M  V30 76 1 33 68
M  V30 77 1 34 69
M  V30 78 1 35 70
M  V30 79 1 37 71
M  V30 80 1 38 72
M  V30 END BOND
M  V30 END CTAB
M  END

$$$$
